# File generated by Flopy version 3.9.2 on 05/07/2025 at 11:09:14.
BEGIN options
END options

BEGIN continuous  FILEOUT  sfr.csv
  headwater  SFR  headwater
  tailwater  SFR  tailwater
  gage-1  inflow  40.0
END continuous  FILEOUT  sfr.csv

