# File generated by Flopy version 3.9.2 on 05/07/2025 at 11:09:15.
BEGIN options
  SAVE_FLOWS
END options

BEGIN period  1
    OPEN/CLOSE  'examples/simple_freyburg/data/input/freyberg6.rch_recharge_1.txt'
END period  1

BEGIN period  2
    OPEN/CLOSE  'examples/simple_freyburg/data/input/freyberg6.rch_recharge_2.txt'
END period  2

BEGIN period  3
    OPEN/CLOSE  'examples/simple_freyburg/data/input/freyberg6.rch_recharge_3.txt'
END period  3

BEGIN period  4
    OPEN/CLOSE  'examples/simple_freyburg/data/input/freyberg6.rch_recharge_4.txt'
END period  4

BEGIN period  5
    OPEN/CLOSE  'examples/simple_freyburg/data/input/freyberg6.rch_recharge_5.txt'
END period  5

BEGIN period  6
    OPEN/CLOSE  'examples/simple_freyburg/data/input/freyberg6.rch_recharge_6.txt'
END period  6

BEGIN period  7
    OPEN/CLOSE  'examples/simple_freyburg/data/input/freyberg6.rch_recharge_7.txt'
END period  7

BEGIN period  8
    OPEN/CLOSE  'examples/simple_freyburg/data/input/freyberg6.rch_recharge_8.txt'
END period  8

BEGIN period  9
    OPEN/CLOSE  'examples/simple_freyburg/data/input/freyberg6.rch_recharge_9.txt'
END period  9

BEGIN period  10
    OPEN/CLOSE  'examples/simple_freyburg/data/input/freyberg6.rch_recharge_10.txt'
END period  10

BEGIN period  11
    OPEN/CLOSE  'examples/simple_freyburg/data/input/freyberg6.rch_recharge_11.txt'
END period  11

BEGIN period  12
    OPEN/CLOSE  'examples/simple_freyburg/data/input/freyberg6.rch_recharge_12.txt'
END period  12

BEGIN period  13
    OPEN/CLOSE  'examples/simple_freyburg/data/input/freyberg6.rch_recharge_13.txt'
END period  13

BEGIN period  14
    OPEN/CLOSE  'examples/simple_freyburg/data/input/freyberg6.rch_recharge_14.txt'
END period  14

BEGIN period  15
    OPEN/CLOSE  'examples/simple_freyburg/data/input/freyberg6.rch_recharge_15.txt'
END period  15

BEGIN period  16
    OPEN/CLOSE  'examples/simple_freyburg/data/input/freyberg6.rch_recharge_16.txt'
END period  16

BEGIN period  17
    OPEN/CLOSE  'examples/simple_freyburg/data/input/freyberg6.rch_recharge_17.txt'
END period  17

BEGIN period  18
    OPEN/CLOSE  'examples/simple_freyburg/data/input/freyberg6.rch_recharge_18.txt'
END period  18

BEGIN period  19
    OPEN/CLOSE  'examples/simple_freyburg/data/input/freyberg6.rch_recharge_19.txt'
END period  19

BEGIN period  20
    OPEN/CLOSE  'examples/simple_freyburg/data/input/freyberg6.rch_recharge_20.txt'
END period  20

BEGIN period  21
    OPEN/CLOSE  'examples/simple_freyburg/data/input/freyberg6.rch_recharge_21.txt'
END period  21

BEGIN period  22
    OPEN/CLOSE  'examples/simple_freyburg/data/input/freyberg6.rch_recharge_22.txt'
END period  22

BEGIN period  23
    OPEN/CLOSE  'examples/simple_freyburg/data/input/freyberg6.rch_recharge_23.txt'
END period  23

BEGIN period  24
    OPEN/CLOSE  'examples/simple_freyburg/data/input/freyberg6.rch_recharge_24.txt'
END period  24

BEGIN period  25
    OPEN/CLOSE  'examples/simple_freyburg/data/input/freyberg6.rch_recharge_25.txt'
END period  25

