# File generated by Flopy version 3.9.2 on 05/07/2025 at 11:09:14.
BEGIN options
END options

BEGIN timing
  TDIS6  sim.tdis
END timing

BEGIN models
  gwf6  freyburg6.nam  freyburg6
END models

BEGIN exchanges
END exchanges

BEGIN solutiongroup  1
  ims6  sim.ims  freyburg6
END solutiongroup  1

