# File generated by Flopy version 3.9.2 on 04/11/2025 at 15:24:23.
BEGIN options
END options

BEGIN packages
  DRN6  model.drn  drn_0
END packages

