# File generated by Flopy version 3.9.2 on 04/11/2025 at 15:24:23.
BEGIN options
END options

