# File generated by Flopy version 3.9.2 on 04/11/2025 at 15:24:23.
BEGIN options
END options

BEGIN dimensions
  NPER  1
END dimensions

BEGIN perioddata
       1.00000000  1       1.00000000
END perioddata

