# File generated by Flopy version 3.9.2 on 05/08/2025 at 10:56:09.
BEGIN options
  PRINT_OPTION  summary
  COMPLEXITY  complex
END options

