# File generated by Flopy version 3.9.2 on 05/08/2025 at 10:56:09.
BEGIN options
  SAVE_FLOWS
END options

BEGIN griddata
  icelltype
    OPEN/CLOSE  'data/input/freyberg6.npf_icelltype_layer1.txt'  FACTOR  1
  k
    OPEN/CLOSE  'data/input/freyberg6.npf_k_layer1.txt'  FACTOR  1.0
  k33
    OPEN/CLOSE  'data/input/freyberg6.npf_k33_layer1.txt'  FACTOR  1.0
END griddata

