# File generated by Flopy version 3.9.2 on 05/07/2025 at 12:05:42.
BEGIN options
END options

BEGIN period  1
  SAVE  BUDGET  LAST
  SAVE  HEAD  LAST
  PRINT  BUDGET  LAST
END period  1

