# File generated by Flopy version 3.9.2 on 05/07/2025 at 12:05:42.
BEGIN options
  PRINT_OPTION  summary
  COMPLEXITY  complex
END options

