# File generated by Flopy version 3.9.2 on 05/08/2025 at 10:56:09.
BEGIN options
  PRINT_INPUT
  PRINT_FLOWS
  SAVE_FLOWS
END options

BEGIN dimensions
  MAXBOUND  30
END dimensions

BEGIN period  1
    OPEN/CLOSE  'data/input/freyberg6.ghb_stress_period_data_1.txt'
END period  1

