# File generated by Flopy version 3.9.2 on 05/08/2025 at 10:56:09.
BEGIN options
END options

BEGIN period  1
  SAVE  BUDGET  LAST
  SAVE  HEAD  LAST
  PRINT  BUDGET  LAST
END period  1

