# File generated by Flopy version 3.9.2 on 05/07/2025 at 12:05:42.
BEGIN options
  LENGTH_UNITS  meters
END options

BEGIN dimensions
  NLAY  1
  NROW  40
  NCOL  20
END dimensions

BEGIN griddata
  delr
    OPEN/CLOSE  'data/input/freyberg6.dis_delr.txt'  FACTOR  1.0
  delc
    OPEN/CLOSE  'data/input/freyberg6.dis_delc.txt'  FACTOR  1.0
  top
    OPEN/CLOSE  'data/input/freyberg6.dis_top.txt'  FACTOR  1.0
  botm
    OPEN/CLOSE  'data/input/freyberg6.dis_botm_layer1.txt'  FACTOR  1.0
  idomain
    OPEN/CLOSE  'data/input/freyberg6.dis_idomain_layer1.txt'  FACTOR  1
END griddata

