# File generated by Flopy version 3.9.2 on 05/08/2025 at 10:56:09.
BEGIN options
END options

BEGIN continuous  FILEOUT  sfr.csv
    OPEN/CLOSE  'freyburg6.sfr.obs_continuous_sfr.csv.txt'
END continuous  FILEOUT  sfr.csv

