# File generated by Flopy version 3.9.2 on 05/07/2025 at 12:05:42.
BEGIN options
END options

BEGIN griddata
  strt
    OPEN/CLOSE  'data/input/freyberg6.ic_strt_layer1.txt'  FACTOR  1.0
END griddata

