# File generated by Flopy version 3.9.2 on 05/14/2025 at 12:14:07.
BEGIN options
END options

BEGIN griddata
  strt
    OPEN/CLOSE  'C:/Users/tfo46/e_Python/a_rbm/rapid-gwm-build/examples/simple_freyburg/data/input/freyberg6.ic_strt_layer1.txt'  FACTOR  1.0
END griddata

