# File generated by Flopy version 3.9.2 on 05/14/2025 at 12:14:07.
BEGIN options
END options

BEGIN period  1
  SAVE  BUDGET  LAST
  SAVE  HEAD  LAST
  PRINT  BUDGET  LAST
END period  1

