# File generated by Flopy version 3.9.2 on 05/13/2025 at 16:03:06.
BEGIN options
  TIME_UNITS  days
  START_DATE_TIME  2020-01-01
END options

BEGIN dimensions
  NPER  25
END dimensions

BEGIN perioddata
    OPEN/CLOSE  'freyberg6_simple.tdis_perioddata.txt'
END perioddata

