# File generated by Flopy version 3.9.2 on 05/23/2025 at 14:32:09.
BEGIN options
  PRINT_INPUT
  PRINT_FLOWS
  SAVE_FLOWS
END options

BEGIN dimensions
  MAXBOUND  30
END dimensions

BEGIN period  1
    OPEN/CLOSE  'C:\Users\tfo46\e_Python\a_rbm\rapid-gwm-build\examples\simple_freyburg\models\derived_data\ghb_stress_period_data_1.txt'
END period  1

