# File generated by Flopy version 3.9.2 on 05/23/2025 at 14:32:09.
BEGIN options
  PRINT_OPTION  summary
  COMPLEXITY  complex
END options

