# File generated by Flopy version 3.9.2 on 05/23/2025 at 15:08:57.
BEGIN options
  SAVE_FLOWS
END options

BEGIN griddata
  icelltype
    OPEN/CLOSE  'C:/Users/tfo46/e_Python/a_rbm/rapid-gwm-build/examples/simple_freyburg/data/input/freyberg6.npf_icelltype_layer1.txt'  FACTOR  1
  k
    CONSTANT       1.00000000
  k33
    OPEN/CLOSE  'C:/Users/tfo46/e_Python/a_rbm/rapid-gwm-build/examples/simple_freyburg/data/input/freyberg6.npf_k33_layer1.txt'  FACTOR  1.0
END griddata

