# File generated by Flopy version 3.9.2 on 05/23/2025 at 14:32:09.
BEGIN options
END options

BEGIN packages
  GHB6  freyburg6.ghb  ghb_0
  OC6  freyburg6.oc  oc
  IC6  freyburg6.ic  ic
  NPF6  freyburg6.npf  npf
  STO6  freyburg6.sto  sto
  SFR6  freyburg6.sfr  sfr_0
  RCH6  freyburg6.rcha  rcha_0
  WEL6  freyburg6.wel  wel_0
  DIS6  freyburg6.dis  dis
END packages

