# File generated by Flopy version 3.9.2 on 05/13/2025 at 16:03:06.
BEGIN options
  BOUNDNAMES
  PRINT_INPUT
  SAVE_FLOWS
  OBS6  FILEIN  freyburg6.sfr.obs
END options

BEGIN dimensions
  NREACHES  40
END dimensions

BEGIN packagedata
    OPEN/CLOSE  'C:/Users/tfo46/e_Python/a_rbm/rapid-gwm-build/examples/simple_freyburg/data/input/freyberg6.sfr_packagedata.txt'
END packagedata

BEGIN connectiondata
    OPEN/CLOSE  'C:/Users/tfo46/e_Python/a_rbm/rapid-gwm-build/examples/simple_freyburg/data/input/freyberg6.sfr_connectiondata.txt'
END connectiondata

BEGIN period  1
    OPEN/CLOSE  'C:/Users/tfo46/e_Python/a_rbm/rapid-gwm-build/examples/simple_freyburg/data/input/freyberg6.sfr_perioddata_1.txt'
END period  1

