# File generated by Flopy version 3.9.2 on 05/23/2025 at 15:08:57.
BEGIN options
  PRINT_OPTION  summary
  COMPLEXITY  complex
END options

