# File generated by Flopy version 3.9.2 on 05/13/2025 at 16:41:35.
BEGIN options
  LENGTH_UNITS  meters
END options

BEGIN dimensions
  NLAY  1
  NROW  40
  NCOL  20
END dimensions

BEGIN griddata
  delr
    OPEN/CLOSE  'C:/Users/tfo46/e_Python/a_rbm/rapid-gwm-build/examples/simple_freyburg/data/input/freyberg6.dis_delr.txt'  FACTOR  1.0
  delc
    OPEN/CLOSE  'C:/Users/tfo46/e_Python/a_rbm/rapid-gwm-build/examples/simple_freyburg/data/input/freyberg6.dis_delc.txt'  FACTOR  1.0
  top
    OPEN/CLOSE  'C:/Users/tfo46/e_Python/a_rbm/rapid-gwm-build/examples/simple_freyburg/data/input/freyberg6.dis_top.txt'  FACTOR  1.0
  botm
    OPEN/CLOSE  'C:/Users/tfo46/e_Python/a_rbm/rapid-gwm-build/examples/simple_freyburg/data/input/freyberg6.dis_botm_layer1.txt'  FACTOR  1.0
  idomain
    OPEN/CLOSE  'C:/Users/tfo46/e_Python/a_rbm/rapid-gwm-build/examples/simple_freyburg/data/input/freyberg6.dis_idomain_layer1.txt'  FACTOR  1
END griddata

