# File generated by Flopy version 3.9.2 on 05/14/2025 at 12:14:07.
BEGIN options
  PRINT_OPTION  summary
  COMPLEXITY  complex
END options

