# File generated by Flopy version 3.9.2 on 05/23/2025 at 14:32:09.
BEGIN options
  BUDGET  FILEOUT  freyberg6_freyberg.cbc
  HEAD  FILEOUT  freyberg6_freyberg.hds
END options

BEGIN period  1
  SAVE  BUDGET  LAST
  SAVE  HEAD  LAST
  PRINT  BUDGET  LAST
END period  1

