# File generated by Flopy version 3.9.2 on 05/13/2025 at 16:41:35.
BEGIN options
END options

BEGIN continuous  FILEOUT  sfr.csv
    OPEN/CLOSE  'freyburg6.sfr.obs_continuous_sfr.csv.txt'
END continuous  FILEOUT  sfr.csv

