# File generated by Flopy version 3.9.2 on 05/13/2025 at 16:03:06.
BEGIN options
END options

BEGIN packages
  OC6  freyburg6.oc  oc
  DIS6  freyburg6.dis  dis
  IC6  freyburg6.ic  ic
  NPF6  freyburg6.npf  npf
  STO6  freyburg6.sto  sto
  SFR6  freyburg6.sfr  sfr_0
  RCH6  freyburg6.rcha  rcha_0
  WEL6  freyburg6.wel  wel_0
END packages

