# File generated by Flopy version 3.9.2 on 05/14/2025 at 12:14:07.
BEGIN options
END options

BEGIN continuous  FILEOUT  sfr.csv
    OPEN/CLOSE  'freyburg6.sfr.obs_continuous_sfr.csv.txt'
END continuous  FILEOUT  sfr.csv

