# File generated by Flopy version 3.9.2 on 05/13/2025 at 16:03:06.
BEGIN options
  PRINT_OPTION  summary
  COMPLEXITY  complex
END options

