# File generated by Flopy version 3.9.2 on 05/23/2025 at 15:08:57.
BEGIN options
  LENGTH_UNITS  meters
END options

BEGIN dimensions
  NLAY  1
  NROW  40
  NCOL  20
END dimensions

BEGIN griddata
  delr
    INTERNAL  FACTOR  1.0
        10.00000000      10.00000000      10.00000000      10.00000000      10.00000000      10.00000000      10.00000000      10.00000000      10.00000000      10.00000000      10.00000000      10.00000000      10.00000000      10.00000000      10.00000000      10.00000000      10.00000000      10.00000000      10.00000000      10.00000000
  delc
    INTERNAL  FACTOR  1.0
        10.00000000      10.00000000      10.00000000      10.00000000      10.00000000      10.00000000      10.00000000      10.00000000      10.00000000      10.00000000      10.00000000      10.00000000      10.00000000      10.00000000      10.00000000      10.00000000      10.00000000      10.00000000      10.00000000      10.00000000
        10.00000000      10.00000000      10.00000000      10.00000000      10.00000000      10.00000000      10.00000000      10.00000000      10.00000000      10.00000000      10.00000000      10.00000000      10.00000000      10.00000000      10.00000000      10.00000000      10.00000000      10.00000000      10.00000000      10.00000000
  top
    OPEN/CLOSE  'C:/Users/tfo46/e_Python/a_rbm/rapid-gwm-build/examples/simple_freyburg/data/input/freyberg6.dis_top.txt'  FACTOR  1.0
  botm
    OPEN/CLOSE  'C:/Users/tfo46/e_Python/a_rbm/rapid-gwm-build/examples/simple_freyburg/data/input/freyberg6.dis_botm_layer1.txt'  FACTOR  1.0
  idomain
    OPEN/CLOSE  'C:/Users/tfo46/e_Python/a_rbm/rapid-gwm-build/examples/simple_freyburg/data/input/freyberg6.dis_idomain_layer1.txt'  FACTOR  1
END griddata

