# File generated by Flopy version 3.9.2 on 05/13/2025 at 16:03:06.
BEGIN options
END options

BEGIN period  1
  SAVE  BUDGET  LAST
  SAVE  HEAD  LAST
  PRINT  BUDGET  LAST
END period  1

