# File generated by Flopy version 3.9.2 on 05/23/2025 at 15:08:57.
BEGIN options
END options

BEGIN griddata
  iconvert
    OPEN/CLOSE  'C:/Users/tfo46/e_Python/a_rbm/rapid-gwm-build/examples/simple_freyburg/data/input/freyberg6.sto_iconvert_layer1.txt'  FACTOR  1
  ss
    OPEN/CLOSE  'C:/Users/tfo46/e_Python/a_rbm/rapid-gwm-build/examples/simple_freyburg/data/input/freyberg6.sto_ss_layer1.txt'  FACTOR  1.0
  sy
    OPEN/CLOSE  'C:/Users/tfo46/e_Python/a_rbm/rapid-gwm-build/examples/simple_freyburg/data/input/freyberg6.sto_sy_layer1.txt'  FACTOR  1.0
END griddata

BEGIN period  1
  TRANSIENT
END period  1

BEGIN period  2
  TRANSIENT
END period  2

