# File generated by Flopy version 3.9.2 on 05/23/2025 at 14:32:09.
BEGIN options
END options

BEGIN timing
  TDIS6  freyberg6_simple.tdis
END timing

BEGIN models
  gwf6  freyburg6.nam  freyburg6
END models

BEGIN exchanges
END exchanges

BEGIN solutiongroup  1
  ims6  freyberg6_simple.ims  freyburg6
END solutiongroup  1

